Version 4.1
SHEET 1 1444 680
WIRE 64 80 -48 80
WIRE 272 80 160 80
WIRE 320 80 272 80
WIRE 576 80 400 80
WIRE 704 80 576 80
WIRE 720 80 704 80
WIRE 720 112 720 80
WIRE 576 128 576 80
WIRE -48 160 -48 80
WIRE 272 160 272 80
WIRE 112 176 112 144
WIRE 176 176 112 176
WIRE 960 208 960 144
WIRE -48 272 -48 240
WIRE 272 272 272 224
WIRE 272 272 -48 272
WIRE 576 272 576 192
WIRE 576 272 272 272
WIRE 720 272 720 192
WIRE 720 272 576 272
WIRE 720 320 720 272
FLAG 960 288 0
FLAG 720 320 0
FLAG 112 176 Ctrl
FLAG 960 144 Ctrl
FLAG 704 80 Vo
SYMBOL voltage -48 144 R0
WINDOW 123 0 0 Left 0
WINDOW 39 0 0 Left 0
SYMATTR InstName V1
SYMATTR Value 30
SYMBOL ind 416 64 R90
WINDOW 0 5 56 VBottom 2
WINDOW 3 32 56 VTop 2
SYMATTR InstName L1
SYMATTR Value 10µ
SYMBOL cap 560 128 R0
SYMATTR InstName C1
SYMATTR Value 470µ
SYMBOL res 704 96 R0
SYMATTR InstName R1
SYMATTR Value 1k
SYMBOL schottky 288 224 R180
WINDOW 0 24 64 Left 2
WINDOW 3 24 0 Left 2
SYMATTR InstName D1
SYMATTR Value 1N5817
SYMBOL voltage 960 192 R0
WINDOW 123 0 0 Left 0
WINDOW 39 0 0 Left 0
SYMATTR InstName V2
SYMATTR Value PULSE(0 10 0 0 0 3u 4u)
SYMBOL npn 64 144 R270
SYMATTR InstName Q1
SYMATTR Value 2N3904
TEXT -80 352 Left 2 !.tran 0 1 500m 100m
