Version 4.1
SHEET 1 2708 1864
WIRE 32 -96 -64 -96
WIRE 160 -96 32 -96
WIRE 368 -96 160 -96
WIRE 624 -96 464 -96
WIRE 896 -96 624 -96
WIRE 1040 -96 976 -96
WIRE 1184 -96 1040 -96
WIRE 1184 -32 1184 -96
WIRE 1040 -16 1040 -96
WIRE 384 16 384 -48
WIRE 624 32 624 -96
WIRE -64 48 -64 -96
WIRE 160 48 160 -96
WIRE -816 80 -1136 80
WIRE -720 80 -816 80
WIRE -1136 96 -1136 80
WIRE -816 160 -816 80
WIRE -1136 208 -1136 176
WIRE -880 208 -1136 208
WIRE -64 208 -64 128
WIRE 160 208 160 112
WIRE 160 208 -64 208
WIRE 624 208 624 96
WIRE 624 208 160 208
WIRE 1040 208 1040 48
WIRE 1040 208 624 208
WIRE 1184 208 1184 48
WIRE 1184 208 1040 208
WIRE -64 240 -64 208
WIRE -816 288 -816 256
WIRE -720 288 -816 288
WIRE -1136 400 -1136 208
WIRE -816 432 -816 288
WIRE -816 432 -1104 432
WIRE -816 496 -816 432
WIRE -1136 608 -1136 464
WIRE -816 608 -816 576
FLAG -816 608 0
FLAG -1136 608 0
FLAG -720 80 Vcc
FLAG -720 288 vref
FLAG 944 -368 0
FLAG 944 -448 Vctrl
FLAG 384 16 Vctrl
FLAG -64 240 0
FLAG 32 -96 Vee
FLAG 1184 -96 Vo
FLAG 624 -96 Vs
DATAFLAG -752 288 ""
SYMBOL pmos 464 -48 M270
WINDOW 0 100 56 VLeft 2
WINDOW 3 70 79 VLeft 2
SYMATTR InstName M1
SYMATTR Value irf4905
SYMATTR Prefix X
SYMBOL res -800 480 M0
SYMATTR InstName R66
SYMATTR Value 10k
SYMBOL res -1152 192 M180
WINDOW 0 36 76 Left 2
WINDOW 3 36 40 Left 2
SYMATTR InstName R6
SYMATTR Value 2k2
SYMBOL npn -880 160 R0
SYMATTR InstName Q7
SYMATTR Value BC547B
SYMBOL Modelos\\TL431 -1136 432 R0
SYMATTR InstName U2
SYMBOL voltage -64 32 R0
WINDOW 123 0 0 Left 0
WINDOW 39 0 0 Left 0
SYMATTR InstName V1
SYMATTR Value 24
SYMBOL cap 144 48 R0
SYMATTR InstName C1
SYMATTR Value 100µ
SYMBOL voltage 944 -464 R0
WINDOW 123 0 0 Left 0
WINDOW 39 0 0 Left 0
SYMATTR InstName V2
SYMATTR Value PULSE(0 10 0 0 0 2.82u 7.14u)
SYMBOL res 1168 -48 R0
SYMATTR InstName R1
SYMATTR Value 23.14
SYMBOL cap 1024 -16 R0
SYMATTR InstName C2
SYMATTR Value 10µ
SYMBOL ind 992 -112 R90
WINDOW 0 5 56 VBottom 2
WINDOW 3 32 56 VTop 2
SYMATTR InstName L1
SYMATTR Value 500µ
SYMBOL schottky 640 96 R180
WINDOW 0 24 64 Left 2
WINDOW 3 24 0 Left 2
SYMATTR InstName D1
SYMATTR Value MBR735
TEXT -1224 -24 Left 2 ;Vref: Implementacion mediante TL341
TEXT -1152 808 Left 2 !.include Modelos/irf4905.spi
TEXT -1184 760 Left 2 ;Modelos Agregados
TEXT -392 -624 Left 2 ;Implementación: Fuente de regulación de tensión mediante amplificador operacional y transistor PMOS de paso.
TEXT -1152 840 Left 2 !.include Modelos/TL431.spi
TEXT -1152 872 Left 2 !.include Modelos/LM358.txt
TEXT -1160 928 Left 2 !.include Modelos/LM324.txt
TEXT 592 -256 Left 2 !.tran 0 1m 0 10u
RECTANGLE Normal 1584 1088 -416 -656 2
RECTANGLE Normal -432 672 -1264 -80 2
RECTANGLE Normal -432 1088 -1264 688 2
