Version 4
SHEET 1 2236 680
WIRE -144 -1264 -192 -1264
WIRE -16 -1264 -144 -1264
WIRE 240 -1264 -16 -1264
WIRE 432 -1264 336 -1264
WIRE 448 -1264 432 -1264
WIRE 640 -1264 448 -1264
WIRE 912 -1264 720 -1264
WIRE 1056 -1264 912 -1264
WIRE 1376 -1264 1056 -1264
WIRE 1056 -1200 1056 -1264
WIRE 912 -1184 912 -1264
WIRE 1376 -1184 1376 -1264
WIRE 320 -1168 320 -1216
WIRE -16 -1152 -16 -1264
WIRE 320 -1152 320 -1168
WIRE 448 -1152 448 -1264
WIRE -192 -1120 -192 -1264
WIRE -192 -960 -192 -1040
WIRE -16 -960 -16 -1088
WIRE -16 -960 -192 -960
WIRE 448 -960 448 -1056
WIRE 448 -960 -16 -960
WIRE 912 -960 912 -1120
WIRE 912 -960 448 -960
WIRE 1056 -960 1056 -1136
WIRE 1056 -960 912 -960
WIRE 1376 -960 1376 -1104
WIRE 1376 -960 1056 -960
WIRE -192 -928 -192 -960
WIRE 960 -752 896 -752
WIRE 1136 -752 1024 -752
WIRE 1184 -752 1136 -752
WIRE 1184 -736 1184 -752
WIRE 192 -656 192 -688
WIRE 896 -656 896 -752
WIRE 896 -656 800 -656
WIRE 992 -656 896 -656
WIRE 1136 -656 1136 -752
WIRE 1136 -656 1120 -656
WIRE 1280 -624 1120 -624
WIRE 992 -592 832 -592
WIRE 1184 -592 1184 -672
WIRE 1184 -592 1120 -592
WIRE 1280 -592 1184 -592
WIRE 992 -560 784 -560
WIRE 1280 -560 1120 -560
WIRE 784 -544 784 -560
FLAG -192 -928 0
FLAG 1056 -1264 Vo
FLAG 432 -1264 Vs
FLAG -144 -1264 Vee
FLAG 320 -1168 Vctrl_H
FLAG 400 -1072 Vctrl_L
FLAG 1280 -560 vctrl_L
FLAG 1280 -624 vctrl_H
FLAG 1280 -592 Vs
FLAG 800 -656 Vee
FLAG 784 -544 0
FLAG 832 -592 PWM
FLAG 192 -576 0
FLAG 192 -688 PWM
DATAFLAG 144 -1264 ""
DATAFLAG 1280 -1264 ""
SYMBOL voltage -192 -1136 R0
WINDOW 3 24 50 Left 2
WINDOW 123 0 0 Left 0
WINDOW 39 0 0 Left 0
SYMATTR Value 24
SYMATTR InstName VEE
SYMBOL cap 896 -1184 R0
SYMATTR InstName C2
SYMATTR Value 100µ
SYMBOL ind 624 -1248 R270
WINDOW 0 32 56 VTop 2
WINDOW 3 5 56 VBottom 2
SYMATTR InstName L1
SYMATTR Value 50µ
SYMBOL cap -32 -1152 R0
SYMATTR InstName C3
SYMATTR Value 100µ
SYMBOL res 1360 -1200 R0
SYMATTR InstName RL1
SYMATTR Value 5k
SYMBOL LED 1040 -1200 R0
WINDOW 3 -31 96 Left 2
SYMATTR Value NSPW500BS
SYMATTR InstName D1
SYMBOL diode 960 -736 R270
WINDOW 0 32 32 VTop 2
WINDOW 3 0 32 VBottom 2
SYMATTR InstName D2
SYMATTR Value MBR735
SYMBOL cap 1168 -736 R0
SYMATTR InstName C4
SYMATTR Value 10µ
SYMBOL nmos 240 -1216 R270
SYMATTR InstName M1
SYMATTR Value IRF1404
SYMBOL nmos 400 -1152 R0
SYMATTR InstName M2
SYMATTR Value IRF1404
SYMBOL voltage 192 -672 R0
WINDOW 3 24 50 Left 2
WINDOW 123 0 0 Left 0
WINDOW 39 0 0 Left 0
SYMATTR Value PULSE(12 0 0 0 0 3u 7.5u)
SYMATTR InstName Vgenerador
SYMBOL IR2111 1056 -608 R0
WINDOW 3 0 0 Left 0
SYMATTR Value IR2111
SYMATTR InstName U7
TEXT -1032 72 Left 2 !.include Modelos/lm393.lib
TEXT -1040 -384 Left 2 !.tran 0 10m 0 1u startup
TEXT -1032 48 Left 2 !.include Modelos/TL082.txt
TEXT -1032 24 Left 2 !.include Modelos/lm358.txt
TEXT -1040 -344 Left 2 !.options gmin=1e-10\n.options abstol=1e-10\n.options reltol=0.003
TEXT -1032 0 Left 2 !.include Modelos/TL431.spi
TEXT -1056 -448 Left 2 ;Directivas y comentarios
TEXT -1032 96 Left 2 !.include LM319.txt
TEXT -264 -1392 Left 5 ;BUCK
TEXT -1032 -24 Left 2 !.include Modelos/irf3205.spi
TEXT 744 -832 Left 4 ;Gate Driver
TEXT -1032 -48 Left 2 !.include Modelos/ir2111.lib
RECTANGLE Normal -1072 -480 -336 128 3
RECTANGLE Normal 1504 -896 -320 -1488 2
RECTANGLE Normal 1504 -880 704 -496 2
