Version 4.1
SHEET 1 3796 1924
WIRE -224 -432 -272 -432
WIRE -96 -432 -224 -432
WIRE 160 -432 -96 -432
WIRE 416 -432 256 -432
WIRE 432 -432 416 -432
WIRE 560 -432 432 -432
WIRE 832 -432 640 -432
WIRE 976 -432 832 -432
WIRE 1296 -432 976 -432
WIRE 976 -368 976 -432
WIRE 832 -352 832 -432
WIRE 1296 -352 1296 -432
WIRE -96 -320 -96 -432
WIRE 240 -320 240 -384
WIRE 432 -320 432 -432
WIRE -272 -288 -272 -432
WIRE -272 -128 -272 -208
WIRE -96 -128 -96 -256
WIRE -96 -128 -272 -128
WIRE 432 -128 432 -224
WIRE 432 -128 -96 -128
WIRE 832 -128 832 -288
WIRE 832 -128 432 -128
WIRE 976 -128 976 -304
WIRE 976 -128 832 -128
WIRE 1296 -128 1296 -272
WIRE 1296 -128 976 -128
WIRE -272 -96 -272 -128
WIRE -1056 96 -1072 96
WIRE -1024 96 -1056 96
WIRE -864 96 -1024 96
WIRE -1024 128 -1024 96
WIRE 0 160 -64 160
WIRE 176 160 64 160
WIRE 224 160 176 160
WIRE 224 176 224 160
WIRE 960 176 960 160
WIRE 960 176 880 176
WIRE 960 192 960 176
WIRE -864 208 -864 96
WIRE -1024 256 -1024 208
WIRE -928 256 -1024 256
WIRE -64 256 -64 160
WIRE -64 256 -160 256
WIRE 32 256 -64 256
WIRE 176 256 176 160
WIRE 176 256 160 256
WIRE 320 288 160 288
WIRE -864 320 -864 304
WIRE -752 320 -864 320
WIRE -688 320 -752 320
WIRE 32 320 -80 320
WIRE 224 320 224 240
WIRE 224 320 160 320
WIRE 320 320 224 320
WIRE -864 352 -864 320
WIRE -688 352 -688 320
WIRE 32 352 -176 352
WIRE 320 352 160 352
WIRE -176 368 -176 352
WIRE -1024 416 -1024 256
WIRE -864 448 -864 432
WIRE -864 448 -992 448
WIRE -688 464 -688 432
WIRE -640 464 -688 464
WIRE -864 496 -864 448
WIRE -688 496 -688 464
WIRE -1024 608 -1024 480
WIRE -864 608 -864 576
WIRE -864 608 -1024 608
WIRE -688 608 -688 576
WIRE -688 608 -864 608
WIRE -864 624 -864 608
WIRE 1056 640 784 640
WIRE 1440 640 1136 640
WIRE 1536 640 1440 640
WIRE -16 736 -80 736
WIRE 112 736 64 736
WIRE 928 736 848 736
WIRE 1056 736 992 736
WIRE 1104 736 1056 736
WIRE 784 816 784 640
WIRE 848 816 848 736
WIRE 848 816 784 816
WIRE 1264 816 1216 816
WIRE 1376 816 1344 816
WIRE -192 864 -208 864
WIRE -80 864 -80 736
WIRE -80 864 -112 864
WIRE -48 864 -80 864
WIRE 480 864 336 864
WIRE 112 880 112 736
WIRE 112 880 16 880
WIRE 272 880 112 880
WIRE -48 896 -80 896
WIRE 304 912 304 896
WIRE 848 912 848 816
WIRE 912 912 848 912
WIRE 1296 912 1296 896
WIRE -16 928 -16 912
WIRE 1056 928 1056 736
WIRE 1056 928 976 928
WIRE 1104 928 1056 928
WIRE 1216 928 1216 816
WIRE 1216 928 1184 928
WIRE 1264 928 1216 928
WIRE 1376 944 1376 816
WIRE 1376 944 1328 944
WIRE 1440 944 1440 640
WIRE 1440 944 1376 944
WIRE -80 960 -80 896
WIRE -80 960 -208 960
WIRE 944 976 944 960
FLAG -1072 -256 0
FLAG -272 -96 0
FLAG 976 -432 Vo
FLAG 416 -432 Vs
FLAG -224 -432 Vee
FLAG 960 272 0
FLAG 960 80 Vo
FLAG 880 176 Vmuestra
FLAG -1072 -336 Vctrl
FLAG 240 -320 Vctrl_H
FLAG 320 352 vctrl_L
FLAG 320 288 vctrl_H
FLAG 320 320 Vee
FLAG -160 256 Vee
FLAG -176 368 0
FLAG -80 320 PWM
FLAG 1296 896 0
FLAG 1536 640 v_cuad
FLAG 944 976 0
FLAG 1104 736 v_triag
FLAG 912 944 vmed
FLAG 1264 960 vmed
FLAG -16 928 0
FLAG 304 912 0
FLAG 272 848 v_triag
FLAG 480 864 PWM
FLAG -208 864 Vmuestra
FLAG 1296 976 vcc10
FLAG 944 896 vcc10
FLAG -16 848 vcc10
FLAG 304 832 vcc10
FLAG -208 960 vmed
FLAG -864 624 0
FLAG -1056 96 Vee
FLAG -752 320 vcc10
FLAG -640 464 vmed
FLAG 384 -240 Vctrl_L
DATAFLAG 64 -432 ""
DATAFLAG 1200 -432 ""
SYMBOL voltage -272 -304 R0
WINDOW 3 24 50 Left 2
WINDOW 123 0 0 Left 0
WINDOW 39 0 0 Left 0
SYMATTR Value 30v
SYMATTR InstName VEE
SYMBOL voltage -1072 -352 R0
WINDOW 123 0 0 Left 0
WINDOW 39 0 0 Left 0
SYMATTR InstName V2
SYMATTR Value PULSE(24 0 0 1n 1n 6.8u 7.14u)
SYMBOL cap 816 -352 R0
SYMATTR InstName C2
SYMATTR Value 100µ
SYMBOL ind 544 -416 R270
WINDOW 0 32 56 VTop 2
WINDOW 3 5 56 VBottom 2
SYMATTR InstName L1
SYMATTR Value 50µ
SYMBOL cap -112 -320 R0
SYMATTR InstName C1
SYMATTR Value 100µ
SYMBOL res 1280 -368 R0
SYMATTR InstName RL
SYMATTR Value 10k
SYMBOL LED 960 -368 R0
WINDOW 3 -31 96 Left 2
SYMATTR Value NSPW500BS
SYMATTR InstName D2
SYMBOL res 944 64 R0
SYMATTR InstName R7
SYMATTR Value 10k
SYMBOL res 944 176 R0
SYMATTR InstName R8
SYMATTR Value 10k
SYMBOL nmos 160 -384 R270
SYMATTR InstName M2
SYMATTR Value IRF1404
SYMBOL diode 0 176 R270
WINDOW 0 32 32 VTop 2
WINDOW 3 0 32 VBottom 2
SYMATTR InstName D1
SYMATTR Value MBR735
SYMBOL cap 208 176 R0
SYMATTR InstName C3
SYMATTR Value 10n
SYMBOL Modelos\\IR2111 96 304 R0
SYMATTR InstName U6
SYMBOL res 1200 912 R90
WINDOW 0 0 56 VBottom 2
WINDOW 3 31 49 VTop 2
SYMATTR InstName R1
SYMATTR Value 68k
SYMBOL res 1360 800 R90
WINDOW 0 0 56 VBottom 2
WINDOW 3 32 56 VTop 2
SYMATTR InstName R2
SYMATTR Value 100k
SYMBOL cap 992 720 R90
WINDOW 0 0 32 VBottom 2
WINDOW 3 32 32 VTop 2
SYMATTR InstName C4
SYMATTR Value 1n
SYMBOL OpAmps\\opamp2 944 864 R0
SYMATTR InstName U1
SYMATTR Value TL082
SYMBOL res 1152 624 R90
WINDOW 0 0 56 VBottom 2
WINDOW 3 32 56 VTop 2
SYMATTR InstName R3
SYMATTR Value 2k2
SYMBOL OpAmps\\opamp2 -16 816 R0
SYMATTR InstName U2
SYMATTR Value TL082
SYMBOL res -96 848 R90
WINDOW 0 0 56 VBottom 2
WINDOW 3 32 56 VTop 2
SYMATTR InstName R4
SYMATTR Value 10k
SYMBOL res 80 720 R90
WINDOW 0 0 56 VBottom 2
WINDOW 3 32 56 VTop 2
SYMATTR InstName R5
SYMATTR Value 68k
SYMBOL OpAmps\\AD8039 1296 1008 M180
SYMATTR InstName U4
SYMBOL OpAmps\\AD8039 304 800 R0
SYMATTR InstName U5
SYMBOL res -848 480 M0
SYMATTR InstName R15
SYMATTR Value 1k
SYMBOL res -1008 112 M0
SYMATTR InstName R16
SYMATTR Value 1k
SYMBOL Modelos\\TL431 -1024 448 R0
SYMATTR InstName U7
SYMBOL res -848 336 M0
SYMATTR InstName R17
SYMATTR Value 3.3k
SYMBOL npn -928 208 R0
SYMATTR InstName Q2
SYMATTR Value BC546B
SYMBOL res -704 336 R0
SYMATTR InstName R18
SYMATTR Value 100k
SYMBOL res -704 480 R0
SYMATTR InstName R19
SYMATTR Value 100k
SYMBOL nmos 384 -320 R0
SYMATTR InstName M1
SYMATTR Value IRF1404
TEXT -1224 -8 Left 3 ;Vref: Implementacion mediante TL341
TEXT -1152 840 Left 2 !.include Modelos/irf4905.spi
TEXT -1184 792 Left 2 ;Modelos Agregados
TEXT -344 -560 Left 5 ;BUCK
TEXT -1152 872 Left 2 !.include Modelos/TL431.spi
TEXT -1152 904 Left 2 !.include Modelos/LM358.txt
TEXT -1152 968 Left 2 !.include Modelos/LM324.txt
TEXT -1176 1248 Left 2 !.tran 0 5m 1m 1m
TEXT -1216 -584 Left 3 ;Seńal de control prueba
TEXT -1224 1192 Left 3 ;Simulaciónes
TEXT 1608 -592 Left 5 ;Oscilador
TEXT 720 200 Left 2 ;2.5 V +- error
TEXT 680 0 Left 4 ;Muestreo
TEXT -336 16 Left 4 ;Gate Driver
TEXT -1152 936 Left 2 !.include Modelos/IR2111.lib
TEXT 1104 1064 Left 2 ;vo = 0   -> Vin_{switch} = Vcc/2 * (1 + R1/R2)\nvo = vcc -> Vin_{switch} = Vcc/2 * (1 - R1/R2)
TEXT 680 536 Left 2 ;Generador de seńal triangular
TEXT 672 1096 Left 2 ;T = 4 * (R1/R2) * R3 * C1
TEXT -376 624 Left 2 ;Generador PWM
TEXT -1152 1000 Left 2 !.include Modelos/TL082.txt
TEXT -1176 1288 Left 2 ;.tran 0 100u 0 0.1u
TEXT -1176 1328 Left 2 !.options gmin=1e-10\n.options abstol=1e-10\n.options reltol=0.003
RECTANGLE Normal -432 688 -1264 -64 2
RECTANGLE Normal -432 1120 -1264 720 2
RECTANGLE Normal -1264 -656 -432 -96 2
RECTANGLE Normal 1424 -64 -400 -656 2
RECTANGLE Normal -688 1408 -1264 1152 2
RECTANGLE Normal 3088 176 1440 -656 2
RECTANGLE Normal 1216 368 656 -32 2
RECTANGLE Normal 624 560 -400 -32 2
RECTANGLE Normal 1664 1120 656 512 3
RECTANGLE Normal 624 1120 -400 592 2
