Version 4.1
SHEET 1 3716 1864
WIRE -224 -432 -272 -432
WIRE -96 -432 -224 -432
WIRE 160 -432 -96 -432
WIRE 416 -432 256 -432
WIRE 560 -432 416 -432
WIRE 832 -432 640 -432
WIRE 976 -432 832 -432
WIRE 1296 -432 976 -432
WIRE 2688 -432 2560 -432
WIRE 2816 -432 2752 -432
WIRE 976 -384 976 -432
WIRE 832 -352 832 -432
WIRE 1296 -352 1296 -432
WIRE -96 -320 -96 -432
WIRE 240 -320 240 -384
WIRE 416 -304 416 -432
WIRE -272 -288 -272 -432
WIRE 2208 -256 2208 -272
WIRE 2176 -240 1584 -240
WIRE 2352 -224 2240 -224
WIRE 2432 -224 2352 -224
WIRE 2560 -224 2560 -432
WIRE 2560 -224 2512 -224
WIRE 2640 -224 2560 -224
WIRE 2176 -208 2112 -208
WIRE 2816 -208 2816 -432
WIRE 2816 -208 2704 -208
WIRE 2944 -208 2816 -208
WIRE 2640 -192 2576 -192
WIRE 1584 -176 1584 -240
WIRE -272 -128 -272 -208
WIRE -96 -128 -96 -256
WIRE -96 -128 -272 -128
WIRE 416 -128 416 -240
WIRE 416 -128 -96 -128
WIRE 832 -128 832 -288
WIRE 832 -128 416 -128
WIRE 976 -128 976 -304
WIRE 976 -128 832 -128
WIRE 1296 -128 1296 -272
WIRE 1296 -128 976 -128
WIRE -272 -96 -272 -128
WIRE 2112 -64 2112 -208
WIRE 2160 -64 2112 -64
WIRE 2352 -64 2352 -224
WIRE 2352 -64 2240 -64
WIRE 2576 -48 2576 -192
WIRE 2112 -16 2112 -64
WIRE 352 16 256 16
WIRE 512 16 432 16
WIRE -880 80 -1136 80
WIRE -864 80 -880 80
WIRE -1136 96 -1136 80
WIRE 2112 112 2112 64
WIRE 2816 112 2816 -208
WIRE 2816 112 2112 112
WIRE 16 128 16 112
WIRE 512 160 512 16
WIRE 512 160 464 160
WIRE 528 160 512 160
WIRE 624 160 608 160
WIRE 1168 160 1168 144
WIRE 1168 160 1088 160
WIRE 160 176 96 176
WIRE 256 176 256 16
WIRE 256 176 160 176
WIRE 400 176 256 176
WIRE 1168 176 1168 160
WIRE 512 192 464 192
WIRE -1136 208 -1136 176
WIRE -928 208 -1136 208
WIRE -880 208 -928 208
WIRE 16 224 16 128
WIRE 96 240 96 176
WIRE 96 240 48 240
WIRE 512 240 512 192
WIRE 624 240 512 240
WIRE -1136 256 -1136 208
WIRE -336 256 -336 240
WIRE -16 256 -336 256
WIRE 96 272 48 272
WIRE -928 288 -928 208
WIRE -928 288 -1104 288
WIRE 96 288 96 272
WIRE 192 288 96 288
WIRE -1136 400 -1136 320
WIRE -928 400 -928 368
FLAG -1072 -256 0
FLAG -272 -96 0
FLAG 976 -432 Vo
FLAG 416 -432 Vs
FLAG -928 400 0
FLAG -1136 400 0
FLAG -224 -432 Vee
FLAG 1584 -96 0
FLAG 1680 -384 0
FLAG 1680 -464 Vcc
FLAG 2208 -272 Vcc
FLAG 2672 -240 Vcc
FLAG 2944 -208 Vtriang
FLAG 2352 -224 Vcuad
FLAG 1904 -368 0
FLAG 1904 -448 -Vcc
FLAG 2672 -176 -Vcc
FLAG 2576 -48 0
FLAG -880 80 Vee
FLAG -880 208 Vref
FLAG 2208 -192 -Vcc
FLAG 1168 256 0
FLAG 1168 64 Vo
FLAG 1088 160 Vmuestra
FLAG 624 160 Vmuestra
FLAG 624 240 Vref
FLAG 432 208 -Vcc
FLAG 432 144 Vcc
FLAG 160 176 Verror
FLAG 192 288 Vtriang
FLAG 16 288 0
FLAG -336 240 Vpwm
FLAG -1072 -336 Vctrl
FLAG 16 128 Vcc
FLAG 240 -320 Vctrl
DATAFLAG 64 -432 ""
DATAFLAG 1200 -432 ""
DATAFLAG -944 208 ""
SYMBOL res -912 272 M0
SYMATTR InstName R66
SYMATTR Value 10k
SYMBOL res -1152 192 M180
WINDOW 0 36 76 Left 2
WINDOW 3 36 40 Left 2
SYMATTR InstName R6
SYMATTR Value 1k
SYMBOL Modelos\\TL431 -1136 288 R0
SYMATTR InstName U2
SYMBOL voltage -272 -304 R0
WINDOW 3 24 50 Left 2
WINDOW 123 0 0 Left 0
WINDOW 39 0 0 Left 0
SYMATTR Value 24
SYMATTR InstName VEE
SYMBOL voltage -1072 -352 R0
WINDOW 123 0 0 Left 0
WINDOW 39 0 0 Left 0
SYMATTR InstName V2
SYMATTR Value PULSE(24 0 0 1n 1n 3.7u 7.14u)
SYMBOL cap 816 -352 R0
SYMATTR InstName C2
SYMATTR Value 100Ą
SYMBOL ind 544 -416 R270
WINDOW 0 32 56 VTop 2
WINDOW 3 5 56 VBottom 2
SYMATTR InstName L1
SYMATTR Value 50Ą
SYMBOL cap -112 -320 R0
SYMATTR InstName C1
SYMATTR Value 100Ą
SYMBOL res 1280 -368 R0
SYMATTR InstName RL
SYMATTR Value 10k
SYMBOL cap 2752 -448 R90
WINDOW 0 0 32 VBottom 2
WINDOW 3 32 32 VTop 2
SYMATTR InstName 1n
SYMATTR Value 100p
SYMBOL res 2528 -240 R90
WINDOW 0 0 56 VBottom 2
WINDOW 3 32 56 VTop 2
SYMATTR InstName R1
SYMATTR Value 35k
SYMBOL res 2096 -32 R0
SYMATTR InstName R4
SYMATTR Value 2.5k
SYMBOL res 2256 -80 R90
WINDOW 0 0 56 VBottom 2
WINDOW 3 32 56 VTop 2
SYMATTR InstName R5
SYMATTR Value 5k
SYMBOL voltage 1584 -192 R0
WINDOW 123 0 0 Left 0
WINDOW 39 0 0 Left 0
SYMATTR InstName V1
SYMATTR Value PULSE(0 1 0 1u 1u 1m 100m)
SYMBOL voltage 1680 -480 R0
WINDOW 123 0 0 Left 0
WINDOW 39 0 0 Left 0
SYMATTR InstName V3
SYMATTR Value 10
SYMBOL voltage 1904 -464 R0
WINDOW 123 0 0 Left 0
WINDOW 39 0 0 Left 0
SYMATTR InstName V4
SYMATTR Value -10
SYMBOL OpAmps\\AD8039 2208 -288 R0
SYMATTR InstName U4
SYMBOL OpAmps\\AD8039 2672 -272 R0
SYMATTR InstName U1
SYMBOL res 1152 48 R0
SYMATTR InstName R7
SYMATTR Value 2k8
SYMBOL res 1152 160 R0
SYMATTR InstName R8
SYMATTR Value 1k
SYMBOL OpAmps\\AD8039 432 112 M0
SYMATTR InstName U3
SYMBOL res 336 0 M90
WINDOW 0 0 56 VBottom 2
WINDOW 3 32 56 VTop 2
SYMATTR InstName R9
SYMATTR Value 33k
SYMBOL res 624 144 R90
WINDOW 0 0 56 VBottom 2
WINDOW 3 32 56 VTop 2
SYMATTR InstName R10
SYMATTR Value 1k
SYMBOL Comparators\\LT1720 16 192 M0
SYMATTR InstName U5
SYMBOL res 960 -400 R0
SYMATTR InstName R3
SYMATTR Value 10
SYMBOL nmos 160 -384 R270
SYMATTR InstName M1
SYMATTR Value irf3205
SYMATTR Prefix X
SYMBOL schottky 432 -240 R180
WINDOW 0 24 64 Left 2
WINDOW 3 24 0 Left 2
SYMATTR InstName D1
SYMATTR Value MBR735
TEXT -1224 -24 Left 3 ;Vref: Implementacion mediante TL341
TEXT -1152 808 Left 2 !.include Modelos/irf3205.spi
TEXT -1184 760 Left 2 ;Modelos Agregados
TEXT -360 -616 Left 5 ;BUCK ( Simulaci¾n a lazo abierto)
TEXT -1152 840 Left 2 !.include Modelos/TL431.spi
TEXT -1152 872 Left 2 !.include Modelos/LM358.txt
TEXT -1160 928 Left 2 !.include Modelos/LM324.txt
TEXT -1144 1232 Left 2 !.tran 0 5m 1m 1u
TEXT -1256 -560 Left 3 ;Se±al de control prueba
TEXT -1192 1176 Left 3 ;Simulaci¾nes
TEXT 1608 -592 Left 5 ;Oscilador
TEXT 928 184 Left 2 ;2.5 V +- error
TEXT 888 -16 Left 4 ;Muestreo
TEXT -360 -8 Left 4 ;PWM
TEXT -320 464 Left 4 ;Gate Driver
TEXT -1152 976 Left 2 !.include Modelos/IR2111.lib
RECTANGLE Normal -432 672 -1264 -80 2
RECTANGLE Normal -432 1088 -1264 688 2
RECTANGLE Normal -1264 -656 -432 -96 2
RECTANGLE Normal 1424 -64 -400 -656 2
RECTANGLE Normal -656 1392 -1232 1136 2
RECTANGLE Normal 3088 176 1440 -656 2
RECTANGLE Normal 1424 352 864 -48 2
RECTANGLE Normal 832 368 -400 -48 2
RECTANGLE Normal 640 1008 -384 416 2
