Version 4.1
SHEET 1 2236 680
WIRE -800 -1392 -960 -1392
WIRE -768 -1392 -800 -1392
WIRE -960 -1328 -960 -1392
WIRE -144 -1264 -192 -1264
WIRE -16 -1264 -144 -1264
WIRE 240 -1264 -16 -1264
WIRE 432 -1264 336 -1264
WIRE 448 -1264 432 -1264
WIRE 640 -1264 448 -1264
WIRE 912 -1264 720 -1264
WIRE 1056 -1264 912 -1264
WIRE 1376 -1264 1056 -1264
WIRE 1056 -1216 1056 -1264
WIRE 912 -1184 912 -1264
WIRE 1376 -1184 1376 -1264
WIRE 320 -1168 320 -1216
WIRE -16 -1152 -16 -1264
WIRE 320 -1152 320 -1168
WIRE 448 -1152 448 -1264
WIRE -192 -1120 -192 -1264
WIRE -880 -1056 -896 -1056
WIRE -864 -1056 -880 -1056
WIRE -704 -1056 -864 -1056
WIRE -864 -1024 -864 -1056
WIRE -192 -960 -192 -1040
WIRE -16 -960 -16 -1088
WIRE -16 -960 -192 -960
WIRE 448 -960 448 -1056
WIRE 448 -960 -16 -960
WIRE 912 -960 912 -1120
WIRE 912 -960 448 -960
WIRE 1056 -960 1056 -1136
WIRE 1056 -960 912 -960
WIRE 1376 -960 1376 -1104
WIRE 1376 -960 1056 -960
WIRE -704 -944 -704 -1056
WIRE -192 -928 -192 -960
WIRE -864 -896 -864 -944
WIRE -768 -896 -864 -896
WIRE -704 -832 -704 -848
WIRE -592 -832 -704 -832
WIRE -528 -832 -592 -832
WIRE -704 -800 -704 -832
WIRE -528 -800 -528 -832
WIRE 32 -784 0 -784
WIRE 144 -784 112 -784
WIRE 544 -752 528 -752
WIRE 560 -752 544 -752
WIRE 960 -752 896 -752
WIRE 1136 -752 1024 -752
WIRE 1184 -752 1136 -752
WIRE -864 -736 -864 -896
WIRE 528 -736 528 -752
WIRE 1184 -736 1184 -752
WIRE -704 -704 -704 -720
WIRE -704 -704 -832 -704
WIRE -528 -688 -528 -720
WIRE -480 -688 -528 -688
WIRE -704 -656 -704 -704
WIRE -528 -656 -528 -688
WIRE -112 -656 -128 -656
WIRE 0 -656 0 -784
WIRE 0 -656 -32 -656
WIRE 32 -656 0 -656
WIRE 528 -656 416 -656
WIRE 560 -656 528 -656
WIRE 896 -656 896 -752
WIRE 896 -656 800 -656
WIRE 992 -656 896 -656
WIRE 1136 -656 1136 -752
WIRE 1136 -656 1120 -656
WIRE 144 -640 144 -784
WIRE 144 -640 96 -640
WIRE 352 -640 144 -640
WIRE 32 -624 0 -624
WIRE 1280 -624 1120 -624
WIRE 384 -608 384 -624
WIRE 64 -592 64 -608
WIRE 992 -592 832 -592
WIRE 1184 -592 1184 -672
WIRE 1184 -592 1120 -592
WIRE 1280 -592 1184 -592
WIRE 0 -560 0 -624
WIRE 0 -560 -128 -560
WIRE 992 -560 784 -560
WIRE 1280 -560 1120 -560
WIRE -864 -544 -864 -672
WIRE -784 -544 -864 -544
WIRE -704 -544 -704 -576
WIRE -704 -544 -784 -544
WIRE -528 -544 -528 -576
WIRE -528 -544 -704 -544
WIRE 784 -544 784 -560
WIRE -784 -528 -784 -544
WIRE 80 -368 -192 -368
WIRE 464 -368 160 -368
WIRE 560 -368 464 -368
WIRE 992 -304 976 -304
WIRE 1008 -304 992 -304
WIRE -48 -272 -128 -272
WIRE 80 -272 16 -272
WIRE 128 -272 80 -272
WIRE 1008 -256 1008 -304
WIRE -192 -192 -192 -368
WIRE -128 -192 -128 -272
WIRE -128 -192 -192 -192
WIRE 288 -192 240 -192
WIRE 400 -192 368 -192
WIRE 1008 -160 1008 -176
WIRE 1040 -160 1008 -160
WIRE 1008 -128 1008 -160
WIRE -128 -96 -128 -192
WIRE -64 -96 -128 -96
WIRE 320 -96 320 -112
WIRE 80 -80 80 -272
WIRE 80 -80 0 -80
WIRE 128 -80 80 -80
WIRE 240 -80 240 -192
WIRE 240 -80 208 -80
WIRE 288 -80 240 -80
WIRE 400 -64 400 -192
WIRE 400 -64 352 -64
WIRE 464 -64 464 -368
WIRE 464 -64 400 -64
WIRE 512 -64 464 -64
WIRE -32 -32 -32 -48
WIRE 1008 -16 1008 -48
FLAG 320 -112 0
FLAG 560 -368 v_cuad
FLAG -32 -32 0
FLAG 128 -272 v_triag
FLAG -64 -64 vmed
FLAG 288 -48 vmed
FLAG 64 -592 0
FLAG -784 -528 0
FLAG -880 -1056 Vee
FLAG -592 -832 vcc5
FLAG 384 -608 0
FLAG 352 -672 v_triag
FLAG 1008 -16 0
FLAG 1040 -160 v_sense
FLAG -128 -656 v_sense
FLAG -480 -688 vmed
FLAG 320 -32 vcc5
FLAG -32 -112 vcc5
FLAG 64 -672 vcc5
FLAG 384 -688 vcc5
FLAG -128 -560 vmed
FLAG 512 -144 vcc5
FLAG -192 -928 0
FLAG 1056 -1264 Vo
FLAG 432 -1264 Vs
FLAG -144 -1264 Vee
FLAG 320 -1168 Vctrl_H
FLAG 400 -1072 Vctrl_L
FLAG 1280 -560 vctrl_L
FLAG 1280 -624 vctrl_H
FLAG 1280 -592 Vs
FLAG 800 -656 Vee
FLAG 784 -544 0
FLAG 544 -752 vee
FLAG 992 -304 Vo
FLAG 560 -656 PWM
FLAG -960 -1248 0
FLAG 832 -592 Vgenerador
FLAG -800 -1392 Vgenerador
DATAFLAG 144 -1264 ""
DATAFLAG 1280 -1264 ""
SYMBOL res 224 -96 R90
WINDOW 0 0 56 VBottom 2
WINDOW 3 31 49 VTop 2
SYMATTR InstName R1
SYMATTR Value 33k
SYMBOL res 384 -208 R90
WINDOW 0 0 56 VBottom 2
WINDOW 3 32 56 VTop 2
SYMATTR InstName R2
SYMATTR Value 100k
SYMBOL cap 16 -288 R90
WINDOW 0 0 32 VBottom 2
WINDOW 3 32 32 VTop 2
SYMATTR InstName C1
SYMATTR Value 1n
SYMBOL OpAmps\\opamp2 -32 -144 R0
SYMATTR InstName U4
SYMATTR Value TL082
SYMBOL res 176 -384 R90
WINDOW 0 0 56 VBottom 2
WINDOW 3 32 56 VTop 2
SYMATTR InstName R3
SYMATTR Value 5k6
SYMBOL OpAmps\\opamp2 64 -704 R0
SYMATTR InstName U1
SYMATTR Value TL082
SYMBOL res -16 -672 R90
WINDOW 0 0 56 VBottom 2
WINDOW 3 32 56 VTop 2
SYMATTR InstName R4
SYMATTR Value 10k
SYMBOL res 128 -800 R90
WINDOW 0 0 56 VBottom 2
WINDOW 3 32 56 VTop 2
SYMATTR InstName R5
SYMATTR Value 22k
SYMBOL res -688 -672 M0
SYMATTR InstName R6
SYMATTR Value 1k
SYMBOL res -848 -1040 M0
SYMATTR InstName R9
SYMATTR Value 1k
SYMBOL res 992 -272 R0
SYMATTR InstName R10
SYMATTR Value 14k
SYMBOL res 992 -144 R0
SYMATTR InstName R11
SYMATTR Value 5k
SYMBOL Modelos\\TL431 -864 -704 R0
SYMATTR InstName U6
SYMBOL res -688 -816 M0
SYMATTR InstName R14
SYMATTR Value 1k
SYMBOL npn -768 -944 R0
SYMATTR InstName Q1
SYMATTR Value BC547B
SYMBOL res -544 -816 R0
SYMATTR InstName R15
SYMATTR Value 100k
SYMBOL res -544 -672 R0
SYMATTR InstName R16
SYMATTR Value 100k
SYMBOL OpAmps\\opamp2 384 -720 R0
SYMATTR InstName U3
SYMATTR Value LM319
SYMBOL OpAmps\\opamp2 320 0 M180
SYMATTR InstName U5
SYMATTR Value LM319
SYMBOL res 496 -160 R0
SYMATTR InstName R8
SYMATTR Value 100
SYMBOL voltage -192 -1136 R0
WINDOW 3 24 50 Left 2
WINDOW 123 0 0 Left 0
WINDOW 39 0 0 Left 0
SYMATTR Value 24
SYMATTR InstName VEE
SYMBOL cap 896 -1184 R0
SYMATTR InstName C2
SYMATTR Value 100µ
SYMBOL ind 624 -1248 R270
WINDOW 0 32 56 VTop 2
WINDOW 3 5 56 VBottom 2
SYMATTR InstName L1
SYMATTR Value 50µ
SYMBOL cap -32 -1152 R0
SYMATTR InstName C3
SYMATTR Value 100µ
SYMBOL res 1360 -1200 R0
SYMATTR InstName RL1
SYMATTR Value 5k
SYMBOL diode 960 -736 R270
WINDOW 0 32 32 VTop 2
WINDOW 3 0 32 VBottom 2
SYMATTR InstName D2
SYMATTR Value MBR735
SYMBOL cap 1168 -736 R0
SYMATTR InstName C4
SYMATTR Value 10µ
SYMBOL res 512 -752 R0
WINDOW 0 42 26 Left 2
WINDOW 3 44 51 Left 2
SYMATTR InstName R7
SYMATTR Value 1k
SYMBOL nmos 240 -1216 R270
SYMATTR InstName M1
SYMATTR Value IRF1404
SYMBOL nmos 400 -1152 R0
SYMATTR InstName M2
SYMATTR Value IRF1404
SYMBOL Modelos\\IR2111 1056 -608 R0
SYMATTR Value IR2111
SYMATTR InstName U2
SYMBOL voltage -960 -1344 R0
WINDOW 3 24 50 Left 2
WINDOW 123 0 0 Left 0
WINDOW 39 0 0 Left 0
SYMATTR Value PULSE(0 12 0 0 0 2.83u 7.14u)
SYMATTR InstName Vgenerador
SYMBOL res 1040 -1232 R0
SYMATTR InstName R12
SYMATTR Value 22
TEXT -1032 72 Left 2 !.include Modelos/lm393.lib
TEXT -1040 -384 Left 2 !.tran 0 10m 0 1u startup
TEXT 128 72 Left 2 ;vo = 0   -> Vin_{switch} = Vcc/2 * (1 + R1/R2)\nvo = vcc -> Vin_{switch} = Vcc/2 * (1 - R1/R2)
TEXT -1032 48 Left 2 !.include Modelos/TL082.txt
TEXT -1032 24 Left 2 !.include Modelos/lm358.txt
TEXT -1040 -344 Left 2 !.options gmin=1e-10\n.options abstol=1e-10\n.options reltol=0.003
TEXT -1032 0 Left 2 !.include Modelos/TL431.spi
TEXT -1056 -448 Left 2 ;Directivas y comentarios
TEXT -304 -440 Left 3 ;Generador de seńal triangular
TEXT -304 104 Left 2 ;T = 4 * (R1/R2) * R3 * C1
TEXT -1056 -1136 Left 2 ;Alimentación y vref
TEXT -296 -848 Left 3 ;Generador PWM
TEXT 728 -448 Left 3 ;Vsense
TEXT -1032 96 Left 2 !.include LM319.txt
TEXT -264 -1392 Left 5 ;BUCK
TEXT -1032 -24 Left 2 !.include Modelos/irf3205.spi
TEXT 744 -832 Left 4 ;Gate Driver
TEXT -1032 -48 Left 2 !.include Modelos/ir2111.lib
RECTANGLE Normal 688 128 -320 -480 3
RECTANGLE Normal -1072 -480 -336 128 3
RECTANGLE Normal -336 -1168 -1072 -496 3
RECTANGLE Normal 688 -880 -320 -496 3
RECTANGLE Normal 1200 128 704 -480 3
RECTANGLE Normal 1504 -896 -320 -1488 2
RECTANGLE Normal 1504 -880 704 -496 2
RECTANGLE Normal -1072 -1488 -336 -1184 2
