Version 4.1
SHEET 1 3796 1924
WIRE -224 -432 -272 -432
WIRE -96 -432 -224 -432
WIRE 160 -432 -96 -432
WIRE 416 -432 256 -432
WIRE 560 -432 416 -432
WIRE 832 -432 640 -432
WIRE 976 -432 832 -432
WIRE 1296 -432 976 -432
WIRE 976 -368 976 -432
WIRE 832 -352 832 -432
WIRE 1296 -352 1296 -432
WIRE -96 -320 -96 -432
WIRE 240 -320 240 -384
WIRE 416 -320 416 -432
WIRE -272 -288 -272 -432
WIRE -272 -128 -272 -208
WIRE -96 -128 -96 -256
WIRE -96 -128 -272 -128
WIRE 416 -128 416 -224
WIRE 416 -128 -96 -128
WIRE 832 -128 832 -288
WIRE 832 -128 416 -128
WIRE 976 -128 976 -304
WIRE 976 -128 832 -128
WIRE 1296 -128 1296 -272
WIRE 1296 -128 976 -128
WIRE -272 -96 -272 -128
WIRE -1040 96 -1056 96
WIRE -1024 96 -1040 96
WIRE -864 96 -1024 96
WIRE 32 112 -32 112
WIRE 208 112 96 112
WIRE 256 112 208 112
WIRE -1024 128 -1024 96
WIRE 256 128 256 112
WIRE 960 176 960 160
WIRE 960 176 880 176
WIRE 960 192 960 176
WIRE -864 208 -864 96
WIRE -32 208 -32 112
WIRE -32 208 -128 208
WIRE 64 208 -32 208
WIRE 208 208 208 112
WIRE 208 208 192 208
WIRE 352 240 192 240
WIRE -1024 256 -1024 208
WIRE -928 256 -1024 256
WIRE 64 272 -48 272
WIRE 256 272 256 192
WIRE 256 272 192 272
WIRE 352 272 256 272
WIRE 64 304 -144 304
WIRE 352 304 192 304
WIRE -864 320 -864 304
WIRE -752 320 -864 320
WIRE -688 320 -752 320
WIRE -144 320 -144 304
WIRE -864 352 -864 320
WIRE -688 352 -688 320
WIRE -1024 416 -1024 256
WIRE -864 448 -864 432
WIRE -864 448 -992 448
WIRE -688 464 -688 432
WIRE -640 464 -688 464
WIRE -864 496 -864 448
WIRE -688 496 -688 464
WIRE -1024 608 -1024 480
WIRE -944 608 -1024 608
WIRE -864 608 -864 576
WIRE -864 608 -944 608
WIRE -688 608 -688 576
WIRE -688 608 -864 608
WIRE -944 624 -944 608
WIRE 1056 624 784 624
WIRE 1440 624 1136 624
WIRE 1536 624 1440 624
WIRE -48 688 -80 688
WIRE 64 688 32 688
WIRE 928 720 848 720
WIRE 1056 720 992 720
WIRE 1104 720 1056 720
WIRE 784 800 784 624
WIRE 848 800 848 720
WIRE 848 800 784 800
WIRE 1264 800 1216 800
WIRE 1376 800 1344 800
WIRE -192 816 -208 816
WIRE -80 816 -80 688
WIRE -80 816 -112 816
WIRE -48 816 -80 816
WIRE 480 816 336 816
WIRE 64 832 64 688
WIRE 64 832 16 832
WIRE 272 832 64 832
WIRE -48 848 -80 848
WIRE 304 864 304 848
WIRE -16 880 -16 864
WIRE 848 896 848 800
WIRE 912 896 848 896
WIRE 1296 896 1296 880
WIRE -80 912 -80 848
WIRE -80 912 -208 912
WIRE 1056 912 1056 720
WIRE 1056 912 976 912
WIRE 1104 912 1056 912
WIRE 1216 912 1216 800
WIRE 1216 912 1184 912
WIRE 1264 912 1216 912
WIRE 1376 928 1376 800
WIRE 1376 928 1328 928
WIRE 1440 928 1440 624
WIRE 1440 928 1376 928
WIRE 944 960 944 944
FLAG -1072 -256 0
FLAG -272 -96 0
FLAG 976 -432 Vo
FLAG 416 -432 Vs
FLAG -224 -432 Vee
FLAG 960 272 0
FLAG 960 80 Vo
FLAG 880 176 Vmuestra
FLAG -1072 -336 Vctrl
FLAG 240 -320 Vctrl_H
FLAG 368 -240 vctrl_L
FLAG 352 304 vctrl_L
FLAG 352 240 vctrl_H
FLAG 352 272 Vee
FLAG -128 208 Vee
FLAG -144 320 0
FLAG -48 272 Vctrl
FLAG 1296 880 0
FLAG 1536 624 v_cuad
FLAG 944 960 0
FLAG 1104 720 v_triag
FLAG 912 928 vmed
FLAG 1264 944 vmed
FLAG -16 880 0
FLAG 304 864 0
FLAG 272 800 v_triag
FLAG 480 816 PWM
FLAG -208 816 Vmuestra
FLAG 1296 960 vcc10
FLAG 944 880 vcc10
FLAG -16 800 vcc10
FLAG 304 784 vcc10
FLAG -208 912 vmed
FLAG -944 624 0
FLAG -1040 96 Vee
FLAG -752 320 vcc10
FLAG -640 464 vmed
DATAFLAG 64 -432 ""
DATAFLAG 1200 -432 ""
SYMBOL voltage -272 -304 R0
WINDOW 3 24 50 Left 2
WINDOW 123 0 0 Left 0
WINDOW 39 0 0 Left 0
SYMATTR Value 24
SYMATTR InstName VEE
SYMBOL voltage -1072 -352 R0
WINDOW 123 0 0 Left 0
WINDOW 39 0 0 Left 0
SYMATTR InstName V2
SYMATTR Value PULSE(24 0 0 1n 1n 6.8u 7.14u)
SYMBOL cap 816 -352 R0
SYMATTR InstName C2
SYMATTR Value 100µ
SYMBOL ind 544 -416 R270
WINDOW 0 32 56 VTop 2
WINDOW 3 5 56 VBottom 2
SYMATTR InstName L1
SYMATTR Value 50µ
SYMBOL cap -112 -320 R0
SYMATTR InstName C1
SYMATTR Value 100µ
SYMBOL res 1280 -368 R0
SYMATTR InstName RL
SYMATTR Value 10k
SYMBOL LED 960 -368 R0
WINDOW 3 -31 96 Left 2
SYMATTR Value NSPW500BS
SYMATTR InstName D2
SYMBOL res 944 64 R0
SYMATTR InstName R7
SYMATTR Value 7.5k
SYMBOL res 944 176 R0
SYMATTR InstName R8
SYMATTR Value 10k
SYMBOL nmos 160 -384 R270
SYMATTR InstName M2
SYMATTR Value IRF1404
SYMBOL nmos 368 -320 R0
SYMATTR InstName M1
SYMATTR Value IRF1404
SYMBOL diode 32 128 R270
WINDOW 0 32 32 VTop 2
WINDOW 3 0 32 VBottom 2
SYMATTR InstName D1
SYMATTR Value MBR735
SYMBOL cap 240 128 R0
SYMATTR InstName C3
SYMATTR Value 100p
SYMBOL Modelos\\IR2111 128 256 R0
SYMATTR InstName U6
SYMBOL res 1200 896 R90
WINDOW 0 0 56 VBottom 2
WINDOW 3 31 49 VTop 2
SYMATTR InstName R1
SYMATTR Value 68k
SYMBOL res 1360 784 R90
WINDOW 0 0 56 VBottom 2
WINDOW 3 32 56 VTop 2
SYMATTR InstName R2
SYMATTR Value 100k
SYMBOL cap 992 704 R90
WINDOW 0 0 32 VBottom 2
WINDOW 3 32 32 VTop 2
SYMATTR InstName C4
SYMATTR Value 1n
SYMBOL OpAmps\\opamp2 944 848 R0
SYMATTR InstName U1
SYMATTR Value TL082
SYMBOL res 1152 608 R90
WINDOW 0 0 56 VBottom 2
WINDOW 3 32 56 VTop 2
SYMATTR InstName R3
SYMATTR Value 2k2
SYMBOL OpAmps\\opamp2 -16 768 R0
SYMATTR InstName U2
SYMATTR Value TL082
SYMBOL res -96 800 R90
WINDOW 0 0 56 VBottom 2
WINDOW 3 32 56 VTop 2
SYMATTR InstName R4
SYMATTR Value 10k
SYMBOL res 48 672 R90
WINDOW 0 0 56 VBottom 2
WINDOW 3 32 56 VTop 2
SYMATTR InstName R5
SYMATTR Value 68k
SYMBOL OpAmps\\AD8039 1296 992 M180
SYMATTR InstName U4
SYMBOL OpAmps\\AD8039 304 752 R0
SYMATTR InstName U5
SYMBOL res -848 480 M0
SYMATTR InstName R15
SYMATTR Value 1k
SYMBOL res -1008 112 M0
SYMATTR InstName R16
SYMATTR Value 1k
SYMBOL Modelos\\TL431 -1024 448 R0
SYMATTR InstName U7
SYMBOL res -848 336 M0
SYMATTR InstName R17
SYMATTR Value 4k
SYMBOL npn -928 208 R0
SYMATTR InstName Q2
SYMATTR Value 2N2222
SYMBOL res -704 336 R0
SYMATTR InstName R18
SYMATTR Value 10k
SYMBOL res -704 480 R0
SYMATTR InstName R19
SYMATTR Value 10k
TEXT -1224 -8 Left 3 ;Vref: Implementacion mediante TL341
TEXT -1152 840 Left 2 !.include Modelos/irf4905.spi
TEXT -1184 792 Left 2 ;Modelos Agregados
TEXT -344 -560 Left 5 ;BUCK
TEXT -1152 872 Left 2 !.include Modelos/TL431.spi
TEXT -1152 904 Left 2 !.include Modelos/LM358.txt
TEXT -1152 968 Left 2 !.include Modelos/LM324.txt
TEXT -1176 1248 Left 2 !.tran 0 5m 1m 1m
TEXT -1256 -560 Left 3 ;Seńal de control prueba
TEXT -1224 1192 Left 3 ;Simulaciónes
TEXT 1608 -592 Left 5 ;Oscilador
TEXT 720 200 Left 2 ;2.5 V +- error
TEXT 680 0 Left 4 ;Muestreo
TEXT -336 16 Left 4 ;Gate Driver
TEXT -1152 936 Left 2 !.include Modelos/IR2111.lib
TEXT 1104 1064 Left 2 ;vo = 0   -> Vin_{switch} = Vcc/2 * (1 + R1/R2)\nvo = vcc -> Vin_{switch} = Vcc/2 * (1 - R1/R2)
TEXT 680 536 Left 2 ;Generador de seńal triangular
TEXT 672 1096 Left 2 ;T = 4 * (R1/R2) * R3 * C1
TEXT -376 624 Left 2 ;Generador PWM
TEXT -1152 1000 Left 2 !.include Modelos/TL082.txt
TEXT -1176 1288 Left 2 ;.tran 0 100u 0 0.1u
TEXT -1176 1328 Left 2 !.options gmin=1e-10\n.options abstol=1e-10\n.options reltol=0.003
RECTANGLE Normal -432 688 -1264 -64 2
RECTANGLE Normal -432 1120 -1264 720 2
RECTANGLE Normal -1264 -656 -432 -96 2
RECTANGLE Normal 1424 -64 -400 -656 2
RECTANGLE Normal -688 1408 -1264 1152 2
RECTANGLE Normal 3088 176 1440 -656 2
RECTANGLE Normal 1216 368 656 -32 2
RECTANGLE Normal 624 560 -400 -32 2
RECTANGLE Normal 1664 1120 656 512 3
RECTANGLE Normal 624 1120 -400 592 2
