Version 4.1
SHEET 1 2608 680
WIRE 1824 112 1824 64
WIRE 112 128 112 80
WIRE 1792 128 1328 128
WIRE 80 144 -384 144
WIRE 1968 144 1856 144
WIRE 1984 144 1968 144
WIRE 2016 144 1984 144
WIRE 2336 144 2096 144
WIRE 2448 144 2336 144
WIRE 2592 144 2512 144
WIRE 256 160 144 160
WIRE 272 160 256 160
WIRE 304 160 272 160
WIRE 624 160 384 160
WIRE 736 160 624 160
WIRE 880 160 800 160
WIRE 1792 160 1696 160
WIRE 80 176 -16 176
WIRE 1328 176 1328 128
WIRE -384 192 -384 144
WIRE 1824 224 1824 176
WIRE 112 240 112 192
WIRE 2336 288 2336 144
WIRE 2384 288 2336 288
WIRE 624 304 624 160
WIRE 672 304 624 304
WIRE 2528 304 2448 304
WIRE 2592 304 2592 144
WIRE 2592 304 2528 304
WIRE 816 320 736 320
WIRE 880 320 880 160
WIRE 880 320 816 320
WIRE 2384 320 2336 320
WIRE 672 336 624 336
WIRE 1696 336 1696 160
WIRE 1808 336 1696 336
WIRE 1968 336 1968 144
WIRE 1968 336 1888 336
WIRE -16 352 -16 176
WIRE 96 352 -16 352
WIRE 256 352 256 160
WIRE 256 352 176 352
WIRE 2336 368 2336 320
WIRE 624 384 624 336
WIRE 1696 384 1696 336
WIRE -16 400 -16 352
WIRE 1696 512 1696 464
WIRE 2592 512 2592 304
WIRE 2592 512 1696 512
WIRE -16 528 -16 480
WIRE 880 528 880 320
WIRE 880 528 -16 528
FLAG 624 384 0
FLAG -896 272 0
FLAG -896 192 vcc
FLAG 112 80 vcc
FLAG 704 288 vcc
FLAG -1024 400 0
FLAG -1024 320 Vee
FLAG 112 240 Vee
FLAG 704 352 Vee
FLAG -384 272 0
FLAG 272 160 Vcuad
FLAG 816 320 Vtriang
FLAG 2336 368 0
FLAG 1824 64 vcc
FLAG 2416 272 vcc
FLAG 1824 224 Vee
FLAG 2416 336 Vee
FLAG 1328 256 0
FLAG 1984 144 Vcuad2
FLAG 2528 304 Vtriang2
SYMBOL res 192 336 R90
WINDOW 0 0 56 VBottom 2
WINDOW 3 32 56 VTop 2
SYMATTR InstName R2
SYMATTR Value 10k
SYMBOL res -32 384 R0
WINDOW 0 -32 59 Left 2
SYMATTR InstName R3
SYMATTR Value 5.1k
SYMBOL cap 800 144 R90
WINDOW 0 0 32 VBottom 2
WINDOW 3 32 32 VTop 2
SYMATTR InstName C1
SYMATTR Value 1µ
SYMBOL res 400 144 R90
WINDOW 0 0 56 VBottom 2
WINDOW 3 32 56 VTop 2
SYMATTR InstName R4
SYMATTR Value 5.1k
SYMBOL voltage -896 176 R0
WINDOW 123 0 0 Left 0
WINDOW 39 0 0 Left 0
SYMATTR InstName V1
SYMATTR Value 5
SYMBOL voltage -1024 304 R0
WINDOW 123 0 0 Left 0
WINDOW 39 0 0 Left 0
SYMATTR InstName V2
SYMATTR Value -5
SYMBOL OpAmps\\OP07 112 96 R0
SYMATTR InstName U2
SYMBOL OpAmps\\OP07 704 256 R0
SYMATTR InstName U1
SYMBOL voltage -384 176 R0
WINDOW 0 26 20 Left 2
WINDOW 3 -206 -88 Left 2
WINDOW 123 0 0 Left 0
WINDOW 39 0 0 Left 0
SYMATTR InstName V3
SYMATTR Value PULSE(0 1 0 1u 1u 1m 100m)
SYMBOL res 1904 320 R90
WINDOW 0 0 56 VBottom 2
WINDOW 3 32 56 VTop 2
SYMATTR InstName R1
SYMATTR Value 30k
SYMBOL res 1680 368 R0
WINDOW 0 -32 59 Left 2
SYMATTR InstName R5
SYMATTR Value 10k
SYMBOL cap 2512 128 R90
WINDOW 0 0 32 VBottom 2
WINDOW 3 32 32 VTop 2
SYMATTR InstName C2
SYMATTR Value 1µ
SYMBOL res 2112 128 R90
WINDOW 0 0 56 VBottom 2
WINDOW 3 32 56 VTop 2
SYMATTR InstName R6
SYMATTR Value 2k
SYMBOL OpAmps\\OP07 2416 240 R0
SYMATTR InstName U5
SYMBOL voltage 1328 160 R0
WINDOW 0 26 20 Left 2
WINDOW 3 -206 -88 Left 2
WINDOW 123 0 0 Left 0
WINDOW 39 0 0 Left 0
SYMATTR InstName V4
SYMATTR Value PULSE(0 1 0 1u 1u 1m 100m)
SYMBOL Comparators\\LT1721 1824 80 R0
SYMATTR InstName U6
TEXT -256 512 Left 2 !.tran 0 1 0 1m
