Version 4
SHEET 1 880 680
WIRE 288 -144 240 -144
WIRE 400 -144 368 -144
WIRE 320 -48 320 -64
WIRE 128 -32 48 -32
WIRE 240 -32 240 -144
WIRE 240 -32 208 -32
WIRE 288 -32 240 -32
WIRE 400 -16 400 -144
WIRE 400 -16 352 -16
WIRE 432 -16 400 -16
WIRE 480 -16 480 -32
WIRE 480 -16 432 -16
WIRE 288 0 240 0
WIRE 432 0 432 -16
WIRE 240 96 240 0
WIRE 240 96 208 96
WIRE 272 96 240 96
WIRE 432 96 432 80
FLAG 320 -64 0
FLAG -144 112 0
FLAG -144 32 vcc
FLAG 320 16 vcc
FLAG 48 48 0
FLAG 352 96 0
FLAG 128 96 vcc
FLAG 432 96 0
FLAG 480 -112 vcc
SYMBOL OpAmps\\opamp2 320 48 M180
SYMATTR InstName U1
SYMATTR Value LM2903B
SYMBOL res 224 -48 R90
WINDOW 0 0 56 VBottom 2
WINDOW 3 32 56 VTop 2
SYMATTR InstName R1
SYMATTR Value 10k
SYMBOL res 384 -160 R90
WINDOW 0 0 56 VBottom 2
WINDOW 3 32 56 VTop 2
SYMATTR InstName R2
SYMATTR Value 100k
SYMBOL voltage -144 16 R0
WINDOW 123 0 0 Left 0
WINDOW 39 0 0 Left 0
SYMATTR InstName V1
SYMATTR Value 5v
SYMBOL voltage 48 -48 R0
WINDOW 3 -365 3 Left 2
WINDOW 123 0 0 Left 0
WINDOW 39 0 0 Left 0
SYMATTR InstName V2
SYMATTR Value PULSE(0 5 0 10m 10m 0 20m)
SYMBOL res 224 80 R90
WINDOW 0 0 56 VBottom 2
WINDOW 3 32 56 VTop 2
SYMATTR InstName R3
SYMATTR Value 10k
SYMBOL res 368 80 R90
WINDOW 0 0 56 VBottom 2
WINDOW 3 32 56 VTop 2
SYMATTR InstName R4
SYMATTR Value 10k
SYMBOL res 464 -128 R0
SYMATTR InstName R5
SYMATTR Value 10k
TEXT -160 248 Left 2 !.include Modelos/lm393.lib
TEXT -160 272 Left 2 !.tran 0 100m 0 0.1m
