Version 4
SHEET 1 1508 680
WIRE -592 -928 -608 -928
WIRE -576 -928 -592 -928
WIRE 0 -912 -32 -912
WIRE 112 -912 80 -912
WIRE -608 -896 -608 -928
WIRE -144 -784 -160 -784
WIRE -32 -784 -32 -912
WIRE -32 -784 -64 -784
WIRE 0 -784 -32 -784
WIRE 352 -784 160 -784
WIRE -608 -768 -608 -816
WIRE -448 -768 -608 -768
WIRE 112 -768 112 -912
WIRE 112 -768 64 -768
WIRE 160 -768 160 -784
WIRE 160 -768 112 -768
WIRE 560 -768 416 -768
WIRE 0 -752 -32 -752
WIRE 352 -752 304 -752
WIRE 32 -720 32 -736
WIRE 384 -720 384 -736
WIRE -448 -688 -448 -768
WIRE -32 -688 -32 -752
WIRE -32 -688 -160 -688
WIRE -608 -656 -608 -768
WIRE -480 -656 -608 -656
WIRE -608 -608 -608 -656
WIRE -608 -496 -608 -528
WIRE -528 -496 -608 -496
WIRE -448 -496 -448 -624
WIRE -448 -496 -528 -496
WIRE -528 -480 -528 -496
WIRE 80 -368 -192 -368
WIRE 464 -368 160 -368
WIRE 560 -368 464 -368
WIRE -816 -352 -960 -352
WIRE -528 -336 -608 -336
WIRE -464 -336 -528 -336
WIRE -816 -304 -816 -352
WIRE -464 -304 -464 -336
WIRE -608 -288 -608 -336
WIRE -960 -240 -960 -352
WIRE -48 -224 -128 -224
WIRE 80 -224 16 -224
WIRE 128 -224 80 -224
WIRE -816 -208 -816 -224
WIRE -784 -208 -816 -208
WIRE -464 -192 -464 -224
WIRE -432 -192 -464 -192
WIRE -816 -176 -816 -208
WIRE -464 -160 -464 -192
WIRE -192 -144 -192 -368
WIRE -128 -144 -128 -224
WIRE -128 -144 -192 -144
WIRE 288 -144 240 -144
WIRE 400 -144 368 -144
WIRE -960 -80 -960 -160
WIRE -816 -80 -816 -96
WIRE -816 -80 -960 -80
WIRE -816 -64 -816 -80
WIRE -128 -48 -128 -144
WIRE -64 -48 -128 -48
WIRE 320 -48 320 -64
WIRE 80 -32 80 -224
WIRE 80 -32 0 -32
WIRE 128 -32 80 -32
WIRE 240 -32 240 -144
WIRE 240 -32 208 -32
WIRE 288 -32 240 -32
WIRE 400 -16 400 -144
WIRE 400 -16 352 -16
WIRE 464 -16 464 -368
WIRE 464 -16 400 -16
WIRE -32 16 -32 0
FLAG 320 -64 0
FLAG -608 -208 0
FLAG -528 -336 vcc
FLAG 320 16 vcc
FLAG 560 -368 v_cuad
FLAG -32 16 0
FLAG -32 -64 vcc
FLAG -464 -80 0
FLAG 128 -224 v_triag
FLAG -432 -192 vmed
FLAG -64 -16 vmed
FLAG 288 0 vmed
FLAG 32 -720 0
FLAG 32 -800 vcc
FLAG -528 -480 0
FLAG -592 -928 vcc
FLAG -448 -768 vref
FLAG -160 -688 vref
FLAG 384 -720 0
FLAG 384 -800 vcc
FLAG 304 -752 v_triag
FLAG 560 -768 PWM
FLAG -816 -64 0
FLAG -784 -208 v_sense
FLAG -160 -784 v_sense
SYMBOL res 224 -48 R90
WINDOW 0 0 56 VBottom 2
WINDOW 3 31 49 VTop 2
SYMATTR InstName R1
SYMATTR Value 33k
SYMBOL res 384 -160 R90
WINDOW 0 0 56 VBottom 2
WINDOW 3 32 56 VTop 2
SYMATTR InstName R2
SYMATTR Value 100k
SYMBOL voltage -608 -304 R0
WINDOW 123 0 0 Left 0
WINDOW 39 0 0 Left 0
SYMATTR InstName V1
SYMATTR Value 12v
SYMBOL cap 16 -240 R90
WINDOW 0 0 32 VBottom 2
WINDOW 3 32 32 VTop 2
SYMATTR InstName C1
SYMATTR Value 1n
SYMBOL OpAmps\\opamp2 320 48 M180
SYMATTR InstName U2
SYMATTR Value TL082
SYMBOL res -448 -208 R180
WINDOW 0 36 76 Left 2
WINDOW 3 36 40 Left 2
SYMATTR InstName R7
SYMATTR Value 100k
SYMBOL res -448 -64 R180
WINDOW 0 36 76 Left 2
WINDOW 3 36 40 Left 2
SYMATTR InstName R8
SYMATTR Value 100k
SYMBOL OpAmps\\opamp2 -32 -96 R0
SYMATTR InstName U4
SYMATTR Value TL082
SYMBOL res 176 -384 R90
WINDOW 0 0 56 VBottom 2
WINDOW 3 32 56 VTop 2
SYMATTR InstName R3
SYMATTR Value 4k7
SYMBOL OpAmps\\opamp2 32 -832 R0
SYMATTR InstName U1
SYMATTR Value TL082
SYMBOL res -48 -800 R90
WINDOW 0 0 56 VBottom 2
WINDOW 3 32 56 VTop 2
SYMATTR InstName R4
SYMATTR Value 1k
SYMBOL res 96 -928 R90
WINDOW 0 0 56 VBottom 2
WINDOW 3 32 56 VTop 2
SYMATTR InstName R5
SYMATTR Value 33k
SYMBOL TL431 -448 -656 M0
SYMATTR Value TL431
SYMATTR InstName U3
SYMBOL res -624 -624 R0
SYMATTR InstName R6
SYMATTR Value 10k
SYMBOL res -624 -912 R0
SYMATTR InstName R9
SYMATTR Value 1k
SYMBOL OpAmps\\opamp2 384 -832 R0
SYMATTR InstName U5
SYMATTR Value TL082
SYMBOL res -832 -320 R0
SYMATTR InstName R10
SYMATTR Value 19k
SYMBOL res -832 -192 R0
SYMATTR InstName R11
SYMATTR Value 5k
SYMBOL voltage -960 -256 R0
WINDOW 123 0 0 Left 0
WINDOW 39 0 0 Left 0
SYMATTR InstName V2
SYMATTR Value SINE(9.5 1.5 10k)
TEXT 712 72 Left 2 !.include Modelos/lm393.lib
TEXT 712 96 Left 2 !.tran 0 100u 0 0.1u
TEXT 712 -72 Left 2 ;vo = 0   -> Vin_{switch} = Vcc/2 * (1 + R1/R2)\nvo = vcc -> Vin_{switch} = Vcc/2 * (1 - R1/R2)
TEXT 712 48 Left 2 !.include Modelos/TL082.txt
TEXT 712 24 Left 2 !.include Modelos/lm358.txt
TEXT 704 -184 Left 2 !.options gmin=1e-10\n.options abstol=1e-10\n.options reltol=0.003
TEXT 712 0 Left 2 !.include Modelos/TL431.spi
RECTANGLE Normal 656 64 -256 -432 1
