Version 4.1
SHEET 1 1508 680
WIRE 80 -480 -192 -480
WIRE 256 -480 160 -480
WIRE 464 -480 320 -480
WIRE -192 -368 -192 -480
WIRE 80 -368 -192 -368
WIRE 256 -368 160 -368
WIRE 464 -368 464 -480
WIRE 464 -368 320 -368
WIRE 560 -368 464 -368
WIRE -528 -336 -608 -336
WIRE -464 -336 -528 -336
WIRE -464 -304 -464 -336
WIRE -608 -288 -608 -336
WIRE -48 -224 -128 -224
WIRE 80 -224 16 -224
WIRE 128 -224 80 -224
WIRE -464 -192 -464 -224
WIRE -432 -192 -464 -192
WIRE -464 -160 -464 -192
WIRE -192 -144 -192 -368
WIRE -128 -144 -128 -224
WIRE -128 -144 -192 -144
WIRE 288 -144 240 -144
WIRE 400 -144 368 -144
WIRE -128 -48 -128 -144
WIRE -64 -48 -128 -48
WIRE 320 -48 320 -64
WIRE 80 -32 80 -224
WIRE 80 -32 0 -32
WIRE 128 -32 80 -32
WIRE 240 -32 240 -144
WIRE 240 -32 208 -32
WIRE 288 -32 240 -32
WIRE 400 -16 400 -144
WIRE 400 -16 352 -16
WIRE 464 -16 464 -368
WIRE 464 -16 400 -16
WIRE -32 16 -32 0
FLAG 320 -64 0
FLAG -608 -208 0
FLAG -528 -336 vcc
FLAG 320 16 vcc
FLAG 560 -368 v_cuad
FLAG -32 16 0
FLAG -32 -64 vcc
FLAG -464 -80 0
FLAG 128 -224 v_out
FLAG -432 -192 vmed
FLAG -64 -16 vmed
FLAG 288 0 vmed
SYMBOL res 224 -48 R90
WINDOW 0 0 56 VBottom 2
WINDOW 3 31 49 VTop 2
SYMATTR InstName R1
SYMATTR Value 33k
SYMBOL res 384 -160 R90
WINDOW 0 0 56 VBottom 2
WINDOW 3 32 56 VTop 2
SYMATTR InstName R2
SYMATTR Value 100k
SYMBOL voltage -608 -304 R0
WINDOW 123 0 0 Left 0
WINDOW 39 0 0 Left 0
SYMATTR InstName V1
SYMATTR Value 12v
SYMBOL res 176 -384 R90
WINDOW 0 0 56 VBottom 2
WINDOW 3 32 56 VTop 2
SYMATTR InstName R6
SYMATTR Value 470
SYMBOL cap 16 -240 R90
WINDOW 0 0 32 VBottom 2
WINDOW 3 32 32 VTop 2
SYMATTR InstName C1
SYMATTR Value 1n
SYMBOL OpAmps\\opamp2 320 48 M180
SYMATTR InstName U2
SYMATTR Value TL082
SYMBOL res -448 -208 R180
WINDOW 0 36 76 Left 2
WINDOW 3 36 40 Left 2
SYMATTR InstName R7
SYMATTR Value 100k
SYMBOL res -448 -64 R180
WINDOW 0 36 76 Left 2
WINDOW 3 36 40 Left 2
SYMATTR InstName R8
SYMATTR Value 100k
SYMBOL OpAmps\\opamp2 -32 -96 R0
SYMATTR InstName U4
SYMATTR Value TL082
SYMBOL diode 320 -384 R90
WINDOW 0 0 32 VBottom 2
WINDOW 3 32 32 VTop 2
SYMATTR InstName D1
SYMATTR Value 1N4148
SYMBOL diode 256 -464 R270
WINDOW 0 32 32 VTop 2
WINDOW 3 0 32 VBottom 2
SYMATTR InstName D2
SYMATTR Value 1N4148
SYMBOL res 176 -496 R90
WINDOW 0 0 56 VBottom 2
WINDOW 3 32 56 VTop 2
SYMATTR InstName R3
SYMATTR Value 10k
TEXT 704 56 Left 2 !.include Modelos/lm393.lib
TEXT 704 80 Left 2 !.tran 0 100u 0 0.1u
TEXT 712 -72 Left 2 ;vo = 0   -> Vin_{switch} = Vcc/2 * (1 + R1/R2)\nvo = vcc -> Vin_{switch} = Vcc/2 * (1 - R1/R2)
TEXT 704 32 Left 2 !.include Modelos/TL082.txt
TEXT 704 8 Left 2 !.include Modelos/lm358.txt
TEXT 704 -184 Left 2 !.options gmin=1e-10\n.options abstol=1e-10\n.options reltol=0.003
